<edges>
    <edge from="E" id="E1" to="1" type="L1S25" />
    <edge from="1" id="12" to="2" type="L1S25" />
    <edge from="1" id="13" to="3" type="L1S25" />
    <edge from="2" id="2X" to="X" type="L1S25" />
    <edge from="2" id="23" to="3" type="L1S25" />
    <edge from="3" id="34" to="4" type="L2S25" />
    <edge from="4" id="4X" to="X" type="L1S25" />
</edges>
