<?xml version="1.0" encoding="UTF-8"?>

<!-- generated on Wed Jul  3 11:25:03 2019 by Eclipse SUMO netconvert Version v1_2_0+0765-3423b2ab8c
<configuration xmlns:xsi="http://www.w3.org/2001/XMLSchema-instance" xsi:noNamespaceSchemaLocation="http://sumo.dlr.de/xsd/netconvertConfiguration.xsd">

    <input>
        <node-files value="data/diamond.nod.xml"/>
        <edge-files value="data/diamond.edg.xml"/>
        <type-files value="data/diamond.type.xml"/>
    </input>

    <output>
        <output-file value="data/diamond.net.xml"/>
    </output>

</configuration>
-->

<net version="1.3" junctionCornerDetail="5" limitTurnSpeed="5.50" xmlns:xsi="http://www.w3.org/2001/XMLSchema-instance" xsi:noNamespaceSchemaLocation="http://sumo.dlr.de/xsd/net_file.xsd">

    <location netOffset="300.00,100.00" convBoundary="0.00,0.00,700.00,200.00" origBoundary="-300.00,-100.00,400.00,100.00" projParameter="!"/>

    <type id="L1S25" priority="1" numLanes="1" speed="25.00"/>
    <type id="L2S25" priority="1" numLanes="2" speed="25.00"/>

    <edge id=":N1_0" function="internal">
        <lane id=":N1_0_0" index="0" speed="18.19" length="7.05" shape="48.50,98.40 50.54,98.24 51.90,97.80 53.20,97.12 55.11,96.23"/>
    </edge>
    <edge id=":N1_1" function="internal">
        <lane id=":N1_1_0" index="0" speed="18.09" length="6.96" shape="48.50,98.40 50.53,98.52 51.90,98.88 53.21,99.48 55.11,100.32"/>
    </edge>
    <edge id=":N2_0" function="internal">
        <lane id=":N2_0_0" index="0" speed="5.84" length="9.13" shape="292.49,195.27 295.08,195.91 296.92,195.46 298.03,193.91 298.40,191.27"/>
    </edge>
    <edge id=":N2_1" function="internal">
        <lane id=":N2_1_0" index="0" speed="11.82" length="12.28" shape="292.49,195.27 295.64,196.52 298.40,197.31 301.16,197.40 304.31,196.55"/>
    </edge>
    <edge id=":N3_0" function="internal">
        <lane id=":N3_0_0" index="0" speed="6.48" length="11.55" shape="298.40,5.28 298.89,2.13 300.36,0.33 302.81,-0.12 306.24,0.77"/>
    </edge>
    <edge id=":N3_1" function="internal">
        <lane id=":N3_1_0" index="0" speed="13.45" length="16.01" shape="292.49,1.28 295.78,-0.45 299.03,-2.22 302.74,-3.12 307.43,-2.20"/>
    </edge>
    <edge id=":N4_0" function="internal">
        <lane id=":N4_0_0" index="0" speed="20.02" length="8.55" shape="538.31,93.60 540.67,94.51 542.35,94.99 544.09,95.17 546.62,95.20"/>
    </edge>
    <edge id=":N4_1" function="internal">
        <lane id=":N4_1_0" index="0" speed="15.55" length="5.12" shape="542.57,101.25 543.83,100.42 544.53,99.48 545.26,98.72 546.62,98.40"/>
    </edge>
    <edge id=":N5_0" function="internal">
        <lane id=":N5_0_0" index="0" speed="25.00" length="8.00" shape="396.88,37.03 404.31,40.00"/>
    </edge>
    <edge id=":N6_0" function="internal">
        <lane id=":N6_0_0" index="0" speed="25.00" length="8.00" shape="621.00,98.40 629.00,98.40"/>
    </edge>

    <edge id="1to2" from="N1" to="N2" priority="1" type="L1S25">
        <lane id="1to2_0" index="0" speed="25.00" length="255.67" shape="55.11,100.32 292.49,195.27"/>
    </edge>
    <edge id="1to3" from="N1" to="N3" priority="1" type="L1S25">
        <lane id="1to3_0" index="0" speed="25.00" length="255.67" shape="55.11,96.23 292.49,1.28"/>
    </edge>
    <edge id="2to3" from="N2" to="N3" priority="1" type="L1S25">
        <lane id="2to3_0" index="0" speed="25.00" length="185.99" shape="298.40,191.27 298.40,5.28"/>
    </edge>
    <edge id="2to4" from="N2" to="N4" priority="1" type="L1S25">
        <lane id="2to4_0" index="0" speed="25.00" length="256.62" shape="304.31,196.55 542.57,101.25"/>
    </edge>
    <edge id="3to5" from="N3" to="N5" priority="1" type="L2S25">
        <lane id="3to5_0" index="0" speed="25.00" length="97.62" shape="307.43,-2.20 398.07,34.06"/>
        <lane id="3to5_1" index="1" speed="25.00" length="97.62" shape="306.24,0.77 396.88,37.03"/>
    </edge>
    <edge id="4to6" from="N4" to="N6" priority="1" type="L2S25">
        <lane id="4to6_0" index="0" speed="25.00" length="74.38" acceleration="1" shape="546.62,95.20 621.00,95.20"/>
        <lane id="4to6_1" index="1" speed="25.00" length="74.38" shape="546.62,98.40 621.00,98.40"/>
    </edge>
    <edge id="5to4" from="N5" to="N4" priority="1" type="L1S25">
        <lane id="5to4_0" index="0" speed="25.00" length="144.32" shape="404.31,40.00 538.31,93.60"/>
    </edge>
    <edge id="6to_out" from="N6" to="out" priority="1" type="L1S25">
        <lane id="6to_out_0" index="0" speed="25.00" length="71.00" shape="629.00,98.40 700.00,98.40"/>
    </edge>
    <edge id="in_to1" from="in" to="N1" priority="1" type="L1S25">
        <lane id="in_to1_0" index="0" speed="25.00" length="48.50" shape="0.00,98.40 48.50,98.40"/>
    </edge>

    <junction id="N1" type="priority" x="50.00" y="100.00" incLanes="in_to1_0" intLanes=":N1_0_0 :N1_1_0" shape="54.51,101.80 55.70,98.83 55.08,98.46 55.00,98.28 55.08,98.09 55.31,97.91 55.70,97.72 54.51,94.75 52.35,95.80 51.59,96.22 50.82,96.53 49.84,96.73 48.50,96.80 48.50,100.00 50.81,100.21 51.59,100.47 52.36,100.82 53.27,101.27">
        <request index="0" response="00" foes="00" cont="0"/>
        <request index="1" response="00" foes="00" cont="0"/>
    </junction>
    <junction id="N2" type="priority" x="300.00" y="200.00" incLanes="1to2_0" intLanes=":N2_0_0 :N2_1_0" shape="304.90,198.04 303.71,195.07 301.65,195.31 300.93,194.86 300.41,194.04 300.10,192.85 300.00,191.27 296.80,191.27 296.39,193.33 295.87,193.90 295.15,194.17 294.22,194.13 293.09,193.79 291.90,196.76 294.55,197.86 296.62,198.71 298.40,199.22 300.18,199.32 302.25,198.96">
        <request index="0" response="00" foes="00" cont="0"/>
        <request index="1" response="00" foes="00" cont="0"/>
    </junction>
    <junction id="N3" type="priority" x="300.00" y="0.00" incLanes="2to3_0 1to3_0" intLanes=":N3_0_0 :N3_1_0" shape="296.80,5.28 300.00,5.28 300.63,2.60 301.41,1.88 302.51,1.59 303.92,1.71 305.65,2.26 308.02,-3.68 304.70,-4.70 302.14,-4.82 299.96,-4.24 297.78,-3.15 295.22,-1.74 291.90,-0.21 293.09,2.77 295.15,2.38 295.87,2.65 296.39,3.22 296.70,4.10">
        <request index="0" response="00" foes="00" cont="0"/>
        <request index="1" response="00" foes="00" cont="0"/>
    </junction>
    <junction id="N4" type="priority" x="550.00" y="100.00" incLanes="5to4_0 2to4_0" intLanes=":N4_0_0 :N4_1_0" shape="546.62,100.00 546.62,93.60 543.68,93.54 542.65,93.40 541.65,93.15 540.47,92.73 538.90,92.11 537.71,95.09 540.05,96.10 541.73,97.02 542.77,97.85 543.15,98.58 542.89,99.22 541.98,99.76 543.17,102.73">
        <request index="0" response="00" foes="00" cont="0"/>
        <request index="1" response="00" foes="00" cont="0"/>
    </junction>
    <junction id="N5" type="priority" x="400.00" y="40.00" incLanes="3to5_0 3to5_1" intLanes=":N5_0_0" shape="403.71,41.49 404.90,38.51 402.40,36.62 401.17,34.47 400.24,33.46 398.66,32.57 396.29,38.51">
        <request index="0" response="0" foes="0" cont="0"/>
    </junction>
    <junction id="N6" type="priority" x="625.00" y="100.00" incLanes="4to6_0 4to6_1" intLanes=":N6_0_0" shape="629.00,100.00 629.00,96.80 625.97,95.97 624.03,94.43 622.79,93.84 621.00,93.60 621.00,100.00">
        <request index="0" response="0" foes="0" cont="0"/>
    </junction>
    <junction id="in" type="dead_end" x="0.00" y="100.00" incLanes="" intLanes="" shape="0.00,100.00 0.00,96.80"/>
    <junction id="out" type="dead_end" x="700.00" y="100.00" incLanes="6to_out_0" intLanes="" shape="700.00,96.80 700.00,100.00"/>

    <connection from="1to2" to="2to3" fromLane="0" toLane="0" via=":N2_0_0" dir="r" state="M"/>
    <connection from="1to2" to="2to4" fromLane="0" toLane="0" via=":N2_1_0" dir="s" state="M"/>
    <connection from="1to3" to="3to5" fromLane="0" toLane="0" via=":N3_1_0" dir="s" state="M"/>
    <connection from="2to3" to="3to5" fromLane="0" toLane="1" via=":N3_0_0" dir="l" state="M"/>
    <connection from="2to4" to="4to6" fromLane="0" toLane="1" via=":N4_1_0" dir="s" state="M"/>
    <connection from="3to5" to="5to4" fromLane="1" toLane="0" via=":N5_0_0" dir="s" state="M"/>
    <connection from="4to6" to="6to_out" fromLane="1" toLane="0" via=":N6_0_0" dir="s" state="M"/>
    <connection from="5to4" to="4to6" fromLane="0" toLane="0" via=":N4_0_0" dir="s" state="M"/>
    <connection from="in_to1" to="1to3" fromLane="0" toLane="0" via=":N1_0_0" dir="s" state="M"/>
    <connection from="in_to1" to="1to2" fromLane="0" toLane="0" via=":N1_1_0" dir="s" state="M"/>

    <connection from=":N1_0" to="1to3" fromLane="0" toLane="0" dir="s" state="M"/>
    <connection from=":N1_1" to="1to2" fromLane="0" toLane="0" dir="s" state="M"/>
    <connection from=":N2_0" to="2to3" fromLane="0" toLane="0" dir="r" state="M"/>
    <connection from=":N2_1" to="2to4" fromLane="0" toLane="0" dir="s" state="M"/>
    <connection from=":N3_0" to="3to5" fromLane="0" toLane="1" dir="l" state="M"/>
    <connection from=":N3_1" to="3to5" fromLane="0" toLane="0" dir="s" state="M"/>
    <connection from=":N4_0" to="4to6" fromLane="0" toLane="0" dir="s" state="M"/>
    <connection from=":N4_1" to="4to6" fromLane="0" toLane="1" dir="s" state="M"/>
    <connection from=":N5_0" to="5to4" fromLane="0" toLane="0" dir="s" state="M"/>
    <connection from=":N6_0" to="6to_out" fromLane="0" toLane="0" dir="s" state="M"/>

</net>
