<routes>
        <vType id="typeWE" accel="0.8" decel="4.5" sigma="0.5" length="5" minGap="2.5" maxSpeed="16.67" guiShape="passenger"/>
        <vType id="typeNS" accel="0.8" decel="4.5" sigma="0.5" length="7" minGap="3" maxSpeed="25" guiShape="bus"/>

        <route id="route0" edges="1to2 2toh1 h1toh2 h2to4 4to_out" />
        
        <route id="route1" edges="1to2 2to4 4to_out" />

        <route id="route2" edges="1to3 3toh2 h2to4 4to_out" />
        
    <vehicle id="route2_0" type="typeNS" route="route2" depart="0" />
    <vehicle id="route0_1" type="typeNS" route="route0" depart="10" />
    <vehicle id="route1_2" type="typeNS" route="route1" depart="20" />
    <vehicle id="route0_3" type="typeNS" route="route0" depart="30" />
    <vehicle id="route2_4" type="typeNS" route="route2" depart="40" />
    <vehicle id="route2_5" type="typeNS" route="route2" depart="50" />
    <vehicle id="route2_6" type="typeNS" route="route2" depart="60" />
    <vehicle id="route0_7" type="typeNS" route="route0" depart="70" />
    <vehicle id="route1_8" type="typeNS" route="route1" depart="80" />
    <vehicle id="route0_9" type="typeNS" route="route0" depart="90" />
    <vehicle id="route0_10" type="typeNS" route="route0" depart="100" />
    <vehicle id="route2_11" type="typeNS" route="route2" depart="110" />
    <vehicle id="route0_12" type="typeNS" route="route0" depart="120" />
    <vehicle id="route0_13" type="typeNS" route="route0" depart="130" />
    <vehicle id="route2_14" type="typeNS" route="route2" depart="140" />
    <vehicle id="route2_15" type="typeNS" route="route2" depart="150" />
    <vehicle id="route0_16" type="typeNS" route="route0" depart="160" />
    <vehicle id="route2_17" type="typeNS" route="route2" depart="170" />
    <vehicle id="route2_18" type="typeNS" route="route2" depart="180" />
    <vehicle id="route0_19" type="typeNS" route="route0" depart="190" />
    <vehicle id="route2_20" type="typeNS" route="route2" depart="200" />
    <vehicle id="route2_21" type="typeNS" route="route2" depart="210" />
    <vehicle id="route1_22" type="typeNS" route="route1" depart="220" />
    <vehicle id="route0_23" type="typeNS" route="route0" depart="230" />
    <vehicle id="route2_24" type="typeNS" route="route2" depart="240" />
    <vehicle id="route1_25" type="typeNS" route="route1" depart="250" />
    <vehicle id="route0_26" type="typeNS" route="route0" depart="260" />
    <vehicle id="route0_27" type="typeNS" route="route0" depart="270" />
    <vehicle id="route2_28" type="typeNS" route="route2" depart="280" />
    <vehicle id="route2_29" type="typeNS" route="route2" depart="290" />
    <vehicle id="route2_30" type="typeNS" route="route2" depart="300" />
    <vehicle id="route2_31" type="typeNS" route="route2" depart="310" />
    <vehicle id="route2_32" type="typeNS" route="route2" depart="320" />
    <vehicle id="route2_33" type="typeNS" route="route2" depart="330" />
    <vehicle id="route1_34" type="typeNS" route="route1" depart="340" />
    <vehicle id="route2_35" type="typeNS" route="route2" depart="350" />
    <vehicle id="route2_36" type="typeNS" route="route2" depart="360" />
    <vehicle id="route2_37" type="typeNS" route="route2" depart="370" />
    <vehicle id="route2_38" type="typeNS" route="route2" depart="380" />
    <vehicle id="route2_39" type="typeNS" route="route2" depart="390" />
    <vehicle id="route2_40" type="typeNS" route="route2" depart="400" />
    <vehicle id="route0_41" type="typeNS" route="route0" depart="410" />
    <vehicle id="route0_42" type="typeNS" route="route0" depart="420" />
    <vehicle id="route1_43" type="typeNS" route="route1" depart="430" />
    <vehicle id="route0_44" type="typeNS" route="route0" depart="440" />
    <vehicle id="route0_45" type="typeNS" route="route0" depart="450" />
    <vehicle id="route0_46" type="typeNS" route="route0" depart="460" />
    <vehicle id="route1_47" type="typeNS" route="route1" depart="470" />
    <vehicle id="route2_48" type="typeNS" route="route2" depart="480" />
    <vehicle id="route1_49" type="typeNS" route="route1" depart="490" />
    <vehicle id="route1_50" type="typeNS" route="route1" depart="500" />
    <vehicle id="route0_51" type="typeNS" route="route0" depart="510" />
    <vehicle id="route1_52" type="typeNS" route="route1" depart="520" />
    <vehicle id="route2_53" type="typeNS" route="route2" depart="530" />
    <vehicle id="route2_54" type="typeNS" route="route2" depart="540" />
    <vehicle id="route2_55" type="typeNS" route="route2" depart="550" />
    <vehicle id="route0_56" type="typeNS" route="route0" depart="560" />
    <vehicle id="route2_57" type="typeNS" route="route2" depart="570" />
    <vehicle id="route0_58" type="typeNS" route="route0" depart="580" />
    <vehicle id="route1_59" type="typeNS" route="route1" depart="590" />
    <vehicle id="route2_60" type="typeNS" route="route2" depart="600" />
    <vehicle id="route2_61" type="typeNS" route="route2" depart="610" />
    <vehicle id="route2_62" type="typeNS" route="route2" depart="620" />
    <vehicle id="route2_63" type="typeNS" route="route2" depart="630" />
    <vehicle id="route2_64" type="typeNS" route="route2" depart="640" />
    <vehicle id="route2_65" type="typeNS" route="route2" depart="650" />
    <vehicle id="route0_66" type="typeNS" route="route0" depart="660" />
    <vehicle id="route0_67" type="typeNS" route="route0" depart="670" />
    <vehicle id="route1_68" type="typeNS" route="route1" depart="680" />
    <vehicle id="route1_69" type="typeNS" route="route1" depart="690" />
    <vehicle id="route0_70" type="typeNS" route="route0" depart="700" />
    <vehicle id="route2_71" type="typeNS" route="route2" depart="710" />
    <vehicle id="route2_72" type="typeNS" route="route2" depart="720" />
    <vehicle id="route1_73" type="typeNS" route="route1" depart="730" />
    <vehicle id="route2_74" type="typeNS" route="route2" depart="740" />
    <vehicle id="route1_75" type="typeNS" route="route1" depart="750" />
    <vehicle id="route2_76" type="typeNS" route="route2" depart="760" />
    <vehicle id="route1_77" type="typeNS" route="route1" depart="770" />
    <vehicle id="route1_78" type="typeNS" route="route1" depart="780" />
    <vehicle id="route0_79" type="typeNS" route="route0" depart="790" />
    <vehicle id="route2_80" type="typeNS" route="route2" depart="800" />
    <vehicle id="route1_81" type="typeNS" route="route1" depart="810" />
    <vehicle id="route2_82" type="typeNS" route="route2" depart="820" />
    <vehicle id="route2_83" type="typeNS" route="route2" depart="830" />
    <vehicle id="route1_84" type="typeNS" route="route1" depart="840" />
    <vehicle id="route0_85" type="typeNS" route="route0" depart="850" />
    <vehicle id="route2_86" type="typeNS" route="route2" depart="860" />
    <vehicle id="route2_87" type="typeNS" route="route2" depart="870" />
    <vehicle id="route0_88" type="typeNS" route="route0" depart="880" />
    <vehicle id="route0_89" type="typeNS" route="route0" depart="890" />
    <vehicle id="route0_90" type="typeNS" route="route0" depart="900" />
    <vehicle id="route2_91" type="typeNS" route="route2" depart="910" />
    <vehicle id="route2_92" type="typeNS" route="route2" depart="920" />
    <vehicle id="route1_93" type="typeNS" route="route1" depart="930" />
    <vehicle id="route0_94" type="typeNS" route="route0" depart="940" />
    <vehicle id="route1_95" type="typeNS" route="route1" depart="950" />
    <vehicle id="route2_96" type="typeNS" route="route2" depart="960" />
    <vehicle id="route2_97" type="typeNS" route="route2" depart="970" />
    <vehicle id="route2_98" type="typeNS" route="route2" depart="980" />
    <vehicle id="route2_99" type="typeNS" route="route2" depart="990" />
    <vehicle id="route0_100" type="typeNS" route="route0" depart="1000" />
    <vehicle id="route2_101" type="typeNS" route="route2" depart="1010" />
    <vehicle id="route2_102" type="typeNS" route="route2" depart="1020" />
    <vehicle id="route2_103" type="typeNS" route="route2" depart="1030" />
    <vehicle id="route1_104" type="typeNS" route="route1" depart="1040" />
    <vehicle id="route2_105" type="typeNS" route="route2" depart="1050" />
    <vehicle id="route0_106" type="typeNS" route="route0" depart="1060" />
    <vehicle id="route1_107" type="typeNS" route="route1" depart="1070" />
    <vehicle id="route1_108" type="typeNS" route="route1" depart="1080" />
    <vehicle id="route2_109" type="typeNS" route="route2" depart="1090" />
    <vehicle id="route2_110" type="typeNS" route="route2" depart="1100" />
    <vehicle id="route1_111" type="typeNS" route="route1" depart="1110" />
    <vehicle id="route2_112" type="typeNS" route="route2" depart="1120" />
    <vehicle id="route0_113" type="typeNS" route="route0" depart="1130" />
    <vehicle id="route2_114" type="typeNS" route="route2" depart="1140" />
    <vehicle id="route2_115" type="typeNS" route="route2" depart="1150" />
    <vehicle id="route1_116" type="typeNS" route="route1" depart="1160" />
    <vehicle id="route2_117" type="typeNS" route="route2" depart="1170" />
    <vehicle id="route2_118" type="typeNS" route="route2" depart="1180" />
    <vehicle id="route0_119" type="typeNS" route="route0" depart="1190" />
    <vehicle id="route2_120" type="typeNS" route="route2" depart="1200" />
    <vehicle id="route2_121" type="typeNS" route="route2" depart="1210" />
    <vehicle id="route2_122" type="typeNS" route="route2" depart="1220" />
    <vehicle id="route2_123" type="typeNS" route="route2" depart="1230" />
    <vehicle id="route0_124" type="typeNS" route="route0" depart="1240" />
    <vehicle id="route1_125" type="typeNS" route="route1" depart="1250" />
    <vehicle id="route0_126" type="typeNS" route="route0" depart="1260" />
    <vehicle id="route2_127" type="typeNS" route="route2" depart="1270" />
    <vehicle id="route2_128" type="typeNS" route="route2" depart="1280" />
    <vehicle id="route2_129" type="typeNS" route="route2" depart="1290" />
    <vehicle id="route1_130" type="typeNS" route="route1" depart="1300" />
    <vehicle id="route0_131" type="typeNS" route="route0" depart="1310" />
    <vehicle id="route2_132" type="typeNS" route="route2" depart="1320" />
    <vehicle id="route2_133" type="typeNS" route="route2" depart="1330" />
    <vehicle id="route0_134" type="typeNS" route="route0" depart="1340" />
    <vehicle id="route1_135" type="typeNS" route="route1" depart="1350" />
    <vehicle id="route0_136" type="typeNS" route="route0" depart="1360" />
    <vehicle id="route2_137" type="typeNS" route="route2" depart="1370" />
    <vehicle id="route2_138" type="typeNS" route="route2" depart="1380" />
    <vehicle id="route0_139" type="typeNS" route="route0" depart="1390" />
    <vehicle id="route1_140" type="typeNS" route="route1" depart="1400" />
    <vehicle id="route2_141" type="typeNS" route="route2" depart="1410" />
    <vehicle id="route1_142" type="typeNS" route="route1" depart="1420" />
    <vehicle id="route2_143" type="typeNS" route="route2" depart="1430" />
    <vehicle id="route1_144" type="typeNS" route="route1" depart="1440" />
    <vehicle id="route0_145" type="typeNS" route="route0" depart="1450" />
    <vehicle id="route2_146" type="typeNS" route="route2" depart="1460" />
    <vehicle id="route2_147" type="typeNS" route="route2" depart="1470" />
    <vehicle id="route0_148" type="typeNS" route="route0" depart="1480" />
    <vehicle id="route1_149" type="typeNS" route="route1" depart="1490" />
    <vehicle id="route2_150" type="typeNS" route="route2" depart="1500" />
    <vehicle id="route2_151" type="typeNS" route="route2" depart="1510" />
    <vehicle id="route1_152" type="typeNS" route="route1" depart="1520" />
    <vehicle id="route2_153" type="typeNS" route="route2" depart="1530" />
    <vehicle id="route0_154" type="typeNS" route="route0" depart="1540" />
    <vehicle id="route0_155" type="typeNS" route="route0" depart="1550" />
    <vehicle id="route1_156" type="typeNS" route="route1" depart="1560" />
    <vehicle id="route2_157" type="typeNS" route="route2" depart="1570" />
    <vehicle id="route0_158" type="typeNS" route="route0" depart="1580" />
    <vehicle id="route0_159" type="typeNS" route="route0" depart="1590" />
    <vehicle id="route0_160" type="typeNS" route="route0" depart="1600" />
    <vehicle id="route2_161" type="typeNS" route="route2" depart="1610" />
    <vehicle id="route0_162" type="typeNS" route="route0" depart="1620" />
    <vehicle id="route2_163" type="typeNS" route="route2" depart="1630" />
    <vehicle id="route2_164" type="typeNS" route="route2" depart="1640" />
    <vehicle id="route0_165" type="typeNS" route="route0" depart="1650" />
    <vehicle id="route0_166" type="typeNS" route="route0" depart="1660" />
    <vehicle id="route2_167" type="typeNS" route="route2" depart="1670" />
    <vehicle id="route0_168" type="typeNS" route="route0" depart="1680" />
    <vehicle id="route0_169" type="typeNS" route="route0" depart="1690" />
    <vehicle id="route2_170" type="typeNS" route="route2" depart="1700" />
    <vehicle id="route2_171" type="typeNS" route="route2" depart="1710" />
    <vehicle id="route1_172" type="typeNS" route="route1" depart="1720" />
    <vehicle id="route2_173" type="typeNS" route="route2" depart="1730" />
    <vehicle id="route2_174" type="typeNS" route="route2" depart="1740" />
    <vehicle id="route0_175" type="typeNS" route="route0" depart="1750" />
    <vehicle id="route0_176" type="typeNS" route="route0" depart="1760" />
    <vehicle id="route1_177" type="typeNS" route="route1" depart="1770" />
    <vehicle id="route1_178" type="typeNS" route="route1" depart="1780" />
    <vehicle id="route1_179" type="typeNS" route="route1" depart="1790" />
    <vehicle id="route2_180" type="typeNS" route="route2" depart="1800" />
    <vehicle id="route2_181" type="typeNS" route="route2" depart="1810" />
    <vehicle id="route2_182" type="typeNS" route="route2" depart="1820" />
    <vehicle id="route0_183" type="typeNS" route="route0" depart="1830" />
    <vehicle id="route1_184" type="typeNS" route="route1" depart="1840" />
    <vehicle id="route1_185" type="typeNS" route="route1" depart="1850" />
    <vehicle id="route2_186" type="typeNS" route="route2" depart="1860" />
    <vehicle id="route0_187" type="typeNS" route="route0" depart="1870" />
    <vehicle id="route0_188" type="typeNS" route="route0" depart="1880" />
    <vehicle id="route1_189" type="typeNS" route="route1" depart="1890" />
    <vehicle id="route1_190" type="typeNS" route="route1" depart="1900" />
    <vehicle id="route1_191" type="typeNS" route="route1" depart="1910" />
    <vehicle id="route0_192" type="typeNS" route="route0" depart="1920" />
    <vehicle id="route2_193" type="typeNS" route="route2" depart="1930" />
    <vehicle id="route1_194" type="typeNS" route="route1" depart="1940" />
    <vehicle id="route2_195" type="typeNS" route="route2" depart="1950" />
    <vehicle id="route2_196" type="typeNS" route="route2" depart="1960" />
    <vehicle id="route0_197" type="typeNS" route="route0" depart="1970" />
    <vehicle id="route2_198" type="typeNS" route="route2" depart="1980" />
    <vehicle id="route2_199" type="typeNS" route="route2" depart="1990" />
    <vehicle id="route2_200" type="typeNS" route="route2" depart="2000" />
    <vehicle id="route2_201" type="typeNS" route="route2" depart="2010" />
    <vehicle id="route2_202" type="typeNS" route="route2" depart="2020" />
    <vehicle id="route0_203" type="typeNS" route="route0" depart="2030" />
    <vehicle id="route1_204" type="typeNS" route="route1" depart="2040" />
    <vehicle id="route0_205" type="typeNS" route="route0" depart="2050" />
    <vehicle id="route1_206" type="typeNS" route="route1" depart="2060" />
    <vehicle id="route0_207" type="typeNS" route="route0" depart="2070" />
    <vehicle id="route1_208" type="typeNS" route="route1" depart="2080" />
    <vehicle id="route2_209" type="typeNS" route="route2" depart="2090" />
    <vehicle id="route1_210" type="typeNS" route="route1" depart="2100" />
    <vehicle id="route2_211" type="typeNS" route="route2" depart="2110" />
    <vehicle id="route1_212" type="typeNS" route="route1" depart="2120" />
    <vehicle id="route1_213" type="typeNS" route="route1" depart="2130" />
    <vehicle id="route2_214" type="typeNS" route="route2" depart="2140" />
    <vehicle id="route2_215" type="typeNS" route="route2" depart="2150" />
    <vehicle id="route2_216" type="typeNS" route="route2" depart="2160" />
    <vehicle id="route2_217" type="typeNS" route="route2" depart="2170" />
    <vehicle id="route0_218" type="typeNS" route="route0" depart="2180" />
    <vehicle id="route1_219" type="typeNS" route="route1" depart="2190" />
    <vehicle id="route2_220" type="typeNS" route="route2" depart="2200" />
    <vehicle id="route2_221" type="typeNS" route="route2" depart="2210" />
    <vehicle id="route2_222" type="typeNS" route="route2" depart="2220" />
    <vehicle id="route2_223" type="typeNS" route="route2" depart="2230" />
    <vehicle id="route0_224" type="typeNS" route="route0" depart="2240" />
    <vehicle id="route2_225" type="typeNS" route="route2" depart="2250" />
    <vehicle id="route2_226" type="typeNS" route="route2" depart="2260" />
    <vehicle id="route2_227" type="typeNS" route="route2" depart="2270" />
    <vehicle id="route0_228" type="typeNS" route="route0" depart="2280" />
    <vehicle id="route2_229" type="typeNS" route="route2" depart="2290" />
    <vehicle id="route0_230" type="typeNS" route="route0" depart="2300" />
    <vehicle id="route0_231" type="typeNS" route="route0" depart="2310" />
    <vehicle id="route2_232" type="typeNS" route="route2" depart="2320" />
    <vehicle id="route2_233" type="typeNS" route="route2" depart="2330" />
    <vehicle id="route0_234" type="typeNS" route="route0" depart="2340" />
    <vehicle id="route0_235" type="typeNS" route="route0" depart="2350" />
    <vehicle id="route2_236" type="typeNS" route="route2" depart="2360" />
    <vehicle id="route0_237" type="typeNS" route="route0" depart="2370" />
    <vehicle id="route2_238" type="typeNS" route="route2" depart="2380" />
    <vehicle id="route2_239" type="typeNS" route="route2" depart="2390" />
    <vehicle id="route1_240" type="typeNS" route="route1" depart="2400" />
    <vehicle id="route2_241" type="typeNS" route="route2" depart="2410" />
    <vehicle id="route2_242" type="typeNS" route="route2" depart="2420" />
    <vehicle id="route2_243" type="typeNS" route="route2" depart="2430" />
    <vehicle id="route0_244" type="typeNS" route="route0" depart="2440" />
    <vehicle id="route2_245" type="typeNS" route="route2" depart="2450" />
    <vehicle id="route0_246" type="typeNS" route="route0" depart="2460" />
    <vehicle id="route1_247" type="typeNS" route="route1" depart="2470" />
    <vehicle id="route2_248" type="typeNS" route="route2" depart="2480" />
    <vehicle id="route1_249" type="typeNS" route="route1" depart="2490" />
    <vehicle id="route1_250" type="typeNS" route="route1" depart="2500" />
    <vehicle id="route2_251" type="typeNS" route="route2" depart="2510" />
    <vehicle id="route0_252" type="typeNS" route="route0" depart="2520" />
    <vehicle id="route1_253" type="typeNS" route="route1" depart="2530" />
    <vehicle id="route2_254" type="typeNS" route="route2" depart="2540" />
    <vehicle id="route2_255" type="typeNS" route="route2" depart="2550" />
    <vehicle id="route0_256" type="typeNS" route="route0" depart="2560" />
    <vehicle id="route0_257" type="typeNS" route="route0" depart="2570" />
    <vehicle id="route1_258" type="typeNS" route="route1" depart="2580" />
    <vehicle id="route2_259" type="typeNS" route="route2" depart="2590" />
    <vehicle id="route2_260" type="typeNS" route="route2" depart="2600" />
    <vehicle id="route2_261" type="typeNS" route="route2" depart="2610" />
    <vehicle id="route1_262" type="typeNS" route="route1" depart="2620" />
    <vehicle id="route0_263" type="typeNS" route="route0" depart="2630" />
    <vehicle id="route2_264" type="typeNS" route="route2" depart="2640" />
    <vehicle id="route2_265" type="typeNS" route="route2" depart="2650" />
    <vehicle id="route2_266" type="typeNS" route="route2" depart="2660" />
    <vehicle id="route2_267" type="typeNS" route="route2" depart="2670" />
    <vehicle id="route2_268" type="typeNS" route="route2" depart="2680" />
    <vehicle id="route0_269" type="typeNS" route="route0" depart="2690" />
    <vehicle id="route2_270" type="typeNS" route="route2" depart="2700" />
    <vehicle id="route1_271" type="typeNS" route="route1" depart="2710" />
    <vehicle id="route2_272" type="typeNS" route="route2" depart="2720" />
    <vehicle id="route2_273" type="typeNS" route="route2" depart="2730" />
    <vehicle id="route0_274" type="typeNS" route="route0" depart="2740" />
    <vehicle id="route0_275" type="typeNS" route="route0" depart="2750" />
    <vehicle id="route0_276" type="typeNS" route="route0" depart="2760" />
    <vehicle id="route2_277" type="typeNS" route="route2" depart="2770" />
    <vehicle id="route1_278" type="typeNS" route="route1" depart="2780" />
    <vehicle id="route2_279" type="typeNS" route="route2" depart="2790" />
    <vehicle id="route2_280" type="typeNS" route="route2" depart="2800" />
    <vehicle id="route0_281" type="typeNS" route="route0" depart="2810" />
    <vehicle id="route2_282" type="typeNS" route="route2" depart="2820" />
    <vehicle id="route1_283" type="typeNS" route="route1" depart="2830" />
    <vehicle id="route1_284" type="typeNS" route="route1" depart="2840" />
    <vehicle id="route2_285" type="typeNS" route="route2" depart="2850" />
    <vehicle id="route2_286" type="typeNS" route="route2" depart="2860" />
    <vehicle id="route0_287" type="typeNS" route="route0" depart="2870" />
    <vehicle id="route1_288" type="typeNS" route="route1" depart="2880" />
    <vehicle id="route1_289" type="typeNS" route="route1" depart="2890" />
    <vehicle id="route0_290" type="typeNS" route="route0" depart="2900" />
    <vehicle id="route2_291" type="typeNS" route="route2" depart="2910" />
    <vehicle id="route2_292" type="typeNS" route="route2" depart="2920" />
    <vehicle id="route1_293" type="typeNS" route="route1" depart="2930" />
    <vehicle id="route2_294" type="typeNS" route="route2" depart="2940" />
    <vehicle id="route2_295" type="typeNS" route="route2" depart="2950" />
    <vehicle id="route1_296" type="typeNS" route="route1" depart="2960" />
    <vehicle id="route0_297" type="typeNS" route="route0" depart="2970" />
    <vehicle id="route0_298" type="typeNS" route="route0" depart="2980" />
    <vehicle id="route2_299" type="typeNS" route="route2" depart="2990" />
    <vehicle id="route2_300" type="typeNS" route="route2" depart="3000" />
    <vehicle id="route2_301" type="typeNS" route="route2" depart="3010" />
    <vehicle id="route2_302" type="typeNS" route="route2" depart="3020" />
    <vehicle id="route2_303" type="typeNS" route="route2" depart="3030" />
    <vehicle id="route0_304" type="typeNS" route="route0" depart="3040" />
    <vehicle id="route0_305" type="typeNS" route="route0" depart="3050" />
    <vehicle id="route1_306" type="typeNS" route="route1" depart="3060" />
    <vehicle id="route2_307" type="typeNS" route="route2" depart="3070" />
    <vehicle id="route2_308" type="typeNS" route="route2" depart="3080" />
    <vehicle id="route2_309" type="typeNS" route="route2" depart="3090" />
    <vehicle id="route2_310" type="typeNS" route="route2" depart="3100" />
    <vehicle id="route0_311" type="typeNS" route="route0" depart="3110" />
    <vehicle id="route0_312" type="typeNS" route="route0" depart="3120" />
    <vehicle id="route0_313" type="typeNS" route="route0" depart="3130" />
    <vehicle id="route2_314" type="typeNS" route="route2" depart="3140" />
    <vehicle id="route2_315" type="typeNS" route="route2" depart="3150" />
    <vehicle id="route1_316" type="typeNS" route="route1" depart="3160" />
    <vehicle id="route2_317" type="typeNS" route="route2" depart="3170" />
    <vehicle id="route0_318" type="typeNS" route="route0" depart="3180" />
    <vehicle id="route2_319" type="typeNS" route="route2" depart="3190" />
    <vehicle id="route2_320" type="typeNS" route="route2" depart="3200" />
    <vehicle id="route2_321" type="typeNS" route="route2" depart="3210" />
    <vehicle id="route2_322" type="typeNS" route="route2" depart="3220" />
    <vehicle id="route2_323" type="typeNS" route="route2" depart="3230" />
    <vehicle id="route0_324" type="typeNS" route="route0" depart="3240" />
    <vehicle id="route2_325" type="typeNS" route="route2" depart="3250" />
    <vehicle id="route1_326" type="typeNS" route="route1" depart="3260" />
    <vehicle id="route2_327" type="typeNS" route="route2" depart="3270" />
    <vehicle id="route2_328" type="typeNS" route="route2" depart="3280" />
    <vehicle id="route2_329" type="typeNS" route="route2" depart="3290" />
    <vehicle id="route2_330" type="typeNS" route="route2" depart="3300" />
    <vehicle id="route1_331" type="typeNS" route="route1" depart="3310" />
    <vehicle id="route2_332" type="typeNS" route="route2" depart="3320" />
    <vehicle id="route0_333" type="typeNS" route="route0" depart="3330" />
    <vehicle id="route2_334" type="typeNS" route="route2" depart="3340" />
    <vehicle id="route2_335" type="typeNS" route="route2" depart="3350" />
    <vehicle id="route0_336" type="typeNS" route="route0" depart="3360" />
    <vehicle id="route2_337" type="typeNS" route="route2" depart="3370" />
    <vehicle id="route1_338" type="typeNS" route="route1" depart="3380" />
    <vehicle id="route1_339" type="typeNS" route="route1" depart="3390" />
    <vehicle id="route2_340" type="typeNS" route="route2" depart="3400" />
    <vehicle id="route0_341" type="typeNS" route="route0" depart="3410" />
    <vehicle id="route0_342" type="typeNS" route="route0" depart="3420" />
    <vehicle id="route0_343" type="typeNS" route="route0" depart="3430" />
    <vehicle id="route1_344" type="typeNS" route="route1" depart="3440" />
    <vehicle id="route2_345" type="typeNS" route="route2" depart="3450" />
    <vehicle id="route2_346" type="typeNS" route="route2" depart="3460" />
    <vehicle id="route1_347" type="typeNS" route="route1" depart="3470" />
    <vehicle id="route2_348" type="typeNS" route="route2" depart="3480" />
    <vehicle id="route1_349" type="typeNS" route="route1" depart="3490" />
    <vehicle id="route2_350" type="typeNS" route="route2" depart="3500" />
    <vehicle id="route2_351" type="typeNS" route="route2" depart="3510" />
    <vehicle id="route2_352" type="typeNS" route="route2" depart="3520" />
    <vehicle id="route0_353" type="typeNS" route="route0" depart="3530" />
    <vehicle id="route2_354" type="typeNS" route="route2" depart="3540" />
    <vehicle id="route0_355" type="typeNS" route="route0" depart="3550" />
    <vehicle id="route2_356" type="typeNS" route="route2" depart="3560" />
    <vehicle id="route1_357" type="typeNS" route="route1" depart="3570" />
    <vehicle id="route0_358" type="typeNS" route="route0" depart="3580" />
    <vehicle id="route1_359" type="typeNS" route="route1" depart="3590" />
</routes>
