<nodes>
    <node id="in" x="-300.0" y="0.0" />
    <node id="N1" x="-250.0" y="0.0" />
    <node id="N2" x="0.0" y="100.0" />
    <node id="N3" x="0.0" y="-100.0" type="allway_stop" />
    <node id="N4" x="250.0" y="0.0" />
    <node id="helper" x="5.0" y="">
    <node id="out" x="300.0" y="0.0" />
</nodes>
