<routes>
        <vType id="typeWE" accel="0.8" decel="4.5" sigma="0.5" length="5" minGap="2.5" maxSpeed="16.67" guiShape="passenger"/>
        <vType id="typeNS" accel="0.8" decel="4.5" sigma="0.5" length="7" minGap="3" maxSpeed="25" guiShape="bus"/>

        <route id="route0" edges="1to2 2toh1 h1toh2 h2to4" />
        
        <route id="route1" edges="1to2 2to4" />

        <route id="route2" edges="1to3 3toh2 h2to4" />
        
        
    <vehicle id="route2_0" type="typeNS" route="route2" depart="0" />
    <vehicle id="route0_1" type="typeNS" route="route0" depart="1" />
    <vehicle id="route1_2" type="typeNS" route="route1" depart="2" />
    <vehicle id="route0_3" type="typeNS" route="route0" depart="3" />
    <vehicle id="route2_4" type="typeNS" route="route2" depart="4" />
    <vehicle id="route2_5" type="typeNS" route="route2" depart="5" />
    <vehicle id="route2_6" type="typeNS" route="route2" depart="6" />
    <vehicle id="route0_7" type="typeNS" route="route0" depart="7" />
    <vehicle id="route1_8" type="typeNS" route="route1" depart="8" />
    <vehicle id="route0_9" type="typeNS" route="route0" depart="9" />
    <vehicle id="route0_10" type="typeNS" route="route0" depart="10" />
    <vehicle id="route2_11" type="typeNS" route="route2" depart="11" />
    <vehicle id="route0_12" type="typeNS" route="route0" depart="12" />
    <vehicle id="route0_13" type="typeNS" route="route0" depart="13" />
    <vehicle id="route2_14" type="typeNS" route="route2" depart="14" />
    <vehicle id="route2_15" type="typeNS" route="route2" depart="15" />
    <vehicle id="route0_16" type="typeNS" route="route0" depart="16" />
    <vehicle id="route2_17" type="typeNS" route="route2" depart="17" />
    <vehicle id="route2_18" type="typeNS" route="route2" depart="18" />
    <vehicle id="route0_19" type="typeNS" route="route0" depart="19" />
    <vehicle id="route2_20" type="typeNS" route="route2" depart="20" />
    <vehicle id="route2_21" type="typeNS" route="route2" depart="21" />
    <vehicle id="route1_22" type="typeNS" route="route1" depart="22" />
    <vehicle id="route0_23" type="typeNS" route="route0" depart="23" />
    <vehicle id="route2_24" type="typeNS" route="route2" depart="24" />
    <vehicle id="route1_25" type="typeNS" route="route1" depart="25" />
    <vehicle id="route0_26" type="typeNS" route="route0" depart="26" />
    <vehicle id="route0_27" type="typeNS" route="route0" depart="27" />
    <vehicle id="route2_28" type="typeNS" route="route2" depart="28" />
    <vehicle id="route2_29" type="typeNS" route="route2" depart="29" />
    <vehicle id="route2_30" type="typeNS" route="route2" depart="30" />
    <vehicle id="route2_31" type="typeNS" route="route2" depart="31" />
    <vehicle id="route2_32" type="typeNS" route="route2" depart="32" />
    <vehicle id="route2_33" type="typeNS" route="route2" depart="33" />
    <vehicle id="route1_34" type="typeNS" route="route1" depart="34" />
    <vehicle id="route2_35" type="typeNS" route="route2" depart="35" />
    <vehicle id="route2_36" type="typeNS" route="route2" depart="36" />
    <vehicle id="route2_37" type="typeNS" route="route2" depart="37" />
    <vehicle id="route2_38" type="typeNS" route="route2" depart="38" />
    <vehicle id="route2_39" type="typeNS" route="route2" depart="39" />
    <vehicle id="route2_40" type="typeNS" route="route2" depart="40" />
    <vehicle id="route0_41" type="typeNS" route="route0" depart="41" />
    <vehicle id="route0_42" type="typeNS" route="route0" depart="42" />
    <vehicle id="route1_43" type="typeNS" route="route1" depart="43" />
    <vehicle id="route0_44" type="typeNS" route="route0" depart="44" />
    <vehicle id="route0_45" type="typeNS" route="route0" depart="45" />
    <vehicle id="route0_46" type="typeNS" route="route0" depart="46" />
    <vehicle id="route1_47" type="typeNS" route="route1" depart="47" />
    <vehicle id="route2_48" type="typeNS" route="route2" depart="48" />
    <vehicle id="route1_49" type="typeNS" route="route1" depart="49" />
    <vehicle id="route1_50" type="typeNS" route="route1" depart="50" />
    <vehicle id="route0_51" type="typeNS" route="route0" depart="51" />
    <vehicle id="route1_52" type="typeNS" route="route1" depart="52" />
    <vehicle id="route2_53" type="typeNS" route="route2" depart="53" />
    <vehicle id="route2_54" type="typeNS" route="route2" depart="54" />
    <vehicle id="route2_55" type="typeNS" route="route2" depart="55" />
    <vehicle id="route0_56" type="typeNS" route="route0" depart="56" />
    <vehicle id="route2_57" type="typeNS" route="route2" depart="57" />
    <vehicle id="route0_58" type="typeNS" route="route0" depart="58" />
    <vehicle id="route1_59" type="typeNS" route="route1" depart="59" />
    <vehicle id="route2_60" type="typeNS" route="route2" depart="60" />
    <vehicle id="route2_61" type="typeNS" route="route2" depart="61" />
    <vehicle id="route2_62" type="typeNS" route="route2" depart="62" />
    <vehicle id="route2_63" type="typeNS" route="route2" depart="63" />
    <vehicle id="route2_64" type="typeNS" route="route2" depart="64" />
    <vehicle id="route2_65" type="typeNS" route="route2" depart="65" />
    <vehicle id="route0_66" type="typeNS" route="route0" depart="66" />
    <vehicle id="route0_67" type="typeNS" route="route0" depart="67" />
    <vehicle id="route1_68" type="typeNS" route="route1" depart="68" />
    <vehicle id="route1_69" type="typeNS" route="route1" depart="69" />
    <vehicle id="route0_70" type="typeNS" route="route0" depart="70" />
    <vehicle id="route2_71" type="typeNS" route="route2" depart="71" />
    <vehicle id="route2_72" type="typeNS" route="route2" depart="72" />
    <vehicle id="route1_73" type="typeNS" route="route1" depart="73" />
    <vehicle id="route2_74" type="typeNS" route="route2" depart="74" />
    <vehicle id="route1_75" type="typeNS" route="route1" depart="75" />
    <vehicle id="route2_76" type="typeNS" route="route2" depart="76" />
    <vehicle id="route1_77" type="typeNS" route="route1" depart="77" />
    <vehicle id="route1_78" type="typeNS" route="route1" depart="78" />
    <vehicle id="route0_79" type="typeNS" route="route0" depart="79" />
    <vehicle id="route2_80" type="typeNS" route="route2" depart="80" />
    <vehicle id="route1_81" type="typeNS" route="route1" depart="81" />
    <vehicle id="route2_82" type="typeNS" route="route2" depart="82" />
    <vehicle id="route2_83" type="typeNS" route="route2" depart="83" />
    <vehicle id="route1_84" type="typeNS" route="route1" depart="84" />
    <vehicle id="route0_85" type="typeNS" route="route0" depart="85" />
    <vehicle id="route2_86" type="typeNS" route="route2" depart="86" />
    <vehicle id="route2_87" type="typeNS" route="route2" depart="87" />
    <vehicle id="route0_88" type="typeNS" route="route0" depart="88" />
    <vehicle id="route0_89" type="typeNS" route="route0" depart="89" />
    <vehicle id="route0_90" type="typeNS" route="route0" depart="90" />
    <vehicle id="route2_91" type="typeNS" route="route2" depart="91" />
    <vehicle id="route2_92" type="typeNS" route="route2" depart="92" />
    <vehicle id="route1_93" type="typeNS" route="route1" depart="93" />
    <vehicle id="route0_94" type="typeNS" route="route0" depart="94" />
    <vehicle id="route1_95" type="typeNS" route="route1" depart="95" />
    <vehicle id="route2_96" type="typeNS" route="route2" depart="96" />
    <vehicle id="route2_97" type="typeNS" route="route2" depart="97" />
    <vehicle id="route2_98" type="typeNS" route="route2" depart="98" />
    <vehicle id="route2_99" type="typeNS" route="route2" depart="99" />
    <vehicle id="route0_100" type="typeNS" route="route0" depart="100" />
    <vehicle id="route2_101" type="typeNS" route="route2" depart="101" />
    <vehicle id="route2_102" type="typeNS" route="route2" depart="102" />
    <vehicle id="route2_103" type="typeNS" route="route2" depart="103" />
    <vehicle id="route1_104" type="typeNS" route="route1" depart="104" />
    <vehicle id="route2_105" type="typeNS" route="route2" depart="105" />
    <vehicle id="route0_106" type="typeNS" route="route0" depart="106" />
    <vehicle id="route1_107" type="typeNS" route="route1" depart="107" />
    <vehicle id="route1_108" type="typeNS" route="route1" depart="108" />
    <vehicle id="route2_109" type="typeNS" route="route2" depart="109" />
    <vehicle id="route2_110" type="typeNS" route="route2" depart="110" />
    <vehicle id="route1_111" type="typeNS" route="route1" depart="111" />
    <vehicle id="route2_112" type="typeNS" route="route2" depart="112" />
    <vehicle id="route0_113" type="typeNS" route="route0" depart="113" />
    <vehicle id="route2_114" type="typeNS" route="route2" depart="114" />
    <vehicle id="route2_115" type="typeNS" route="route2" depart="115" />
    <vehicle id="route1_116" type="typeNS" route="route1" depart="116" />
    <vehicle id="route2_117" type="typeNS" route="route2" depart="117" />
    <vehicle id="route2_118" type="typeNS" route="route2" depart="118" />
    <vehicle id="route0_119" type="typeNS" route="route0" depart="119" />
    <vehicle id="route2_120" type="typeNS" route="route2" depart="120" />
    <vehicle id="route2_121" type="typeNS" route="route2" depart="121" />
    <vehicle id="route2_122" type="typeNS" route="route2" depart="122" />
    <vehicle id="route2_123" type="typeNS" route="route2" depart="123" />
    <vehicle id="route0_124" type="typeNS" route="route0" depart="124" />
    <vehicle id="route1_125" type="typeNS" route="route1" depart="125" />
    <vehicle id="route0_126" type="typeNS" route="route0" depart="126" />
    <vehicle id="route2_127" type="typeNS" route="route2" depart="127" />
    <vehicle id="route2_128" type="typeNS" route="route2" depart="128" />
    <vehicle id="route2_129" type="typeNS" route="route2" depart="129" />
    <vehicle id="route1_130" type="typeNS" route="route1" depart="130" />
    <vehicle id="route0_131" type="typeNS" route="route0" depart="131" />
    <vehicle id="route2_132" type="typeNS" route="route2" depart="132" />
    <vehicle id="route2_133" type="typeNS" route="route2" depart="133" />
    <vehicle id="route0_134" type="typeNS" route="route0" depart="134" />
    <vehicle id="route1_135" type="typeNS" route="route1" depart="135" />
    <vehicle id="route0_136" type="typeNS" route="route0" depart="136" />
    <vehicle id="route2_137" type="typeNS" route="route2" depart="137" />
    <vehicle id="route2_138" type="typeNS" route="route2" depart="138" />
    <vehicle id="route0_139" type="typeNS" route="route0" depart="139" />
    <vehicle id="route1_140" type="typeNS" route="route1" depart="140" />
    <vehicle id="route2_141" type="typeNS" route="route2" depart="141" />
    <vehicle id="route1_142" type="typeNS" route="route1" depart="142" />
    <vehicle id="route2_143" type="typeNS" route="route2" depart="143" />
    <vehicle id="route1_144" type="typeNS" route="route1" depart="144" />
    <vehicle id="route0_145" type="typeNS" route="route0" depart="145" />
    <vehicle id="route2_146" type="typeNS" route="route2" depart="146" />
    <vehicle id="route2_147" type="typeNS" route="route2" depart="147" />
    <vehicle id="route0_148" type="typeNS" route="route0" depart="148" />
    <vehicle id="route1_149" type="typeNS" route="route1" depart="149" />
    <vehicle id="route2_150" type="typeNS" route="route2" depart="150" />
    <vehicle id="route2_151" type="typeNS" route="route2" depart="151" />
    <vehicle id="route1_152" type="typeNS" route="route1" depart="152" />
    <vehicle id="route2_153" type="typeNS" route="route2" depart="153" />
    <vehicle id="route0_154" type="typeNS" route="route0" depart="154" />
    <vehicle id="route0_155" type="typeNS" route="route0" depart="155" />
    <vehicle id="route1_156" type="typeNS" route="route1" depart="156" />
    <vehicle id="route2_157" type="typeNS" route="route2" depart="157" />
    <vehicle id="route0_158" type="typeNS" route="route0" depart="158" />
    <vehicle id="route0_159" type="typeNS" route="route0" depart="159" />
    <vehicle id="route0_160" type="typeNS" route="route0" depart="160" />
    <vehicle id="route2_161" type="typeNS" route="route2" depart="161" />
    <vehicle id="route0_162" type="typeNS" route="route0" depart="162" />
    <vehicle id="route2_163" type="typeNS" route="route2" depart="163" />
    <vehicle id="route2_164" type="typeNS" route="route2" depart="164" />
    <vehicle id="route0_165" type="typeNS" route="route0" depart="165" />
    <vehicle id="route0_166" type="typeNS" route="route0" depart="166" />
    <vehicle id="route2_167" type="typeNS" route="route2" depart="167" />
    <vehicle id="route0_168" type="typeNS" route="route0" depart="168" />
    <vehicle id="route0_169" type="typeNS" route="route0" depart="169" />
    <vehicle id="route2_170" type="typeNS" route="route2" depart="170" />
    <vehicle id="route2_171" type="typeNS" route="route2" depart="171" />
    <vehicle id="route1_172" type="typeNS" route="route1" depart="172" />
    <vehicle id="route2_173" type="typeNS" route="route2" depart="173" />
    <vehicle id="route2_174" type="typeNS" route="route2" depart="174" />
    <vehicle id="route0_175" type="typeNS" route="route0" depart="175" />
    <vehicle id="route0_176" type="typeNS" route="route0" depart="176" />
    <vehicle id="route1_177" type="typeNS" route="route1" depart="177" />
    <vehicle id="route1_178" type="typeNS" route="route1" depart="178" />
    <vehicle id="route1_179" type="typeNS" route="route1" depart="179" />
    <vehicle id="route2_180" type="typeNS" route="route2" depart="180" />
    <vehicle id="route2_181" type="typeNS" route="route2" depart="181" />
    <vehicle id="route2_182" type="typeNS" route="route2" depart="182" />
    <vehicle id="route0_183" type="typeNS" route="route0" depart="183" />
    <vehicle id="route1_184" type="typeNS" route="route1" depart="184" />
    <vehicle id="route1_185" type="typeNS" route="route1" depart="185" />
    <vehicle id="route2_186" type="typeNS" route="route2" depart="186" />
    <vehicle id="route0_187" type="typeNS" route="route0" depart="187" />
    <vehicle id="route0_188" type="typeNS" route="route0" depart="188" />
    <vehicle id="route1_189" type="typeNS" route="route1" depart="189" />
    <vehicle id="route1_190" type="typeNS" route="route1" depart="190" />
    <vehicle id="route1_191" type="typeNS" route="route1" depart="191" />
    <vehicle id="route0_192" type="typeNS" route="route0" depart="192" />
    <vehicle id="route2_193" type="typeNS" route="route2" depart="193" />
    <vehicle id="route1_194" type="typeNS" route="route1" depart="194" />
    <vehicle id="route2_195" type="typeNS" route="route2" depart="195" />
    <vehicle id="route2_196" type="typeNS" route="route2" depart="196" />
    <vehicle id="route0_197" type="typeNS" route="route0" depart="197" />
    <vehicle id="route2_198" type="typeNS" route="route2" depart="198" />
    <vehicle id="route2_199" type="typeNS" route="route2" depart="199" />
    <vehicle id="route2_200" type="typeNS" route="route2" depart="200" />
    <vehicle id="route2_201" type="typeNS" route="route2" depart="201" />
    <vehicle id="route2_202" type="typeNS" route="route2" depart="202" />
    <vehicle id="route0_203" type="typeNS" route="route0" depart="203" />
    <vehicle id="route1_204" type="typeNS" route="route1" depart="204" />
    <vehicle id="route0_205" type="typeNS" route="route0" depart="205" />
    <vehicle id="route1_206" type="typeNS" route="route1" depart="206" />
    <vehicle id="route0_207" type="typeNS" route="route0" depart="207" />
    <vehicle id="route1_208" type="typeNS" route="route1" depart="208" />
    <vehicle id="route2_209" type="typeNS" route="route2" depart="209" />
    <vehicle id="route1_210" type="typeNS" route="route1" depart="210" />
    <vehicle id="route2_211" type="typeNS" route="route2" depart="211" />
    <vehicle id="route1_212" type="typeNS" route="route1" depart="212" />
    <vehicle id="route1_213" type="typeNS" route="route1" depart="213" />
    <vehicle id="route2_214" type="typeNS" route="route2" depart="214" />
    <vehicle id="route2_215" type="typeNS" route="route2" depart="215" />
    <vehicle id="route2_216" type="typeNS" route="route2" depart="216" />
    <vehicle id="route2_217" type="typeNS" route="route2" depart="217" />
    <vehicle id="route0_218" type="typeNS" route="route0" depart="218" />
    <vehicle id="route1_219" type="typeNS" route="route1" depart="219" />
    <vehicle id="route2_220" type="typeNS" route="route2" depart="220" />
    <vehicle id="route2_221" type="typeNS" route="route2" depart="221" />
    <vehicle id="route2_222" type="typeNS" route="route2" depart="222" />
    <vehicle id="route2_223" type="typeNS" route="route2" depart="223" />
    <vehicle id="route0_224" type="typeNS" route="route0" depart="224" />
    <vehicle id="route2_225" type="typeNS" route="route2" depart="225" />
    <vehicle id="route2_226" type="typeNS" route="route2" depart="226" />
    <vehicle id="route2_227" type="typeNS" route="route2" depart="227" />
    <vehicle id="route0_228" type="typeNS" route="route0" depart="228" />
    <vehicle id="route2_229" type="typeNS" route="route2" depart="229" />
    <vehicle id="route0_230" type="typeNS" route="route0" depart="230" />
    <vehicle id="route0_231" type="typeNS" route="route0" depart="231" />
    <vehicle id="route2_232" type="typeNS" route="route2" depart="232" />
    <vehicle id="route2_233" type="typeNS" route="route2" depart="233" />
    <vehicle id="route0_234" type="typeNS" route="route0" depart="234" />
    <vehicle id="route0_235" type="typeNS" route="route0" depart="235" />
    <vehicle id="route2_236" type="typeNS" route="route2" depart="236" />
    <vehicle id="route0_237" type="typeNS" route="route0" depart="237" />
    <vehicle id="route2_238" type="typeNS" route="route2" depart="238" />
    <vehicle id="route2_239" type="typeNS" route="route2" depart="239" />
    <vehicle id="route1_240" type="typeNS" route="route1" depart="240" />
    <vehicle id="route2_241" type="typeNS" route="route2" depart="241" />
    <vehicle id="route2_242" type="typeNS" route="route2" depart="242" />
    <vehicle id="route2_243" type="typeNS" route="route2" depart="243" />
    <vehicle id="route0_244" type="typeNS" route="route0" depart="244" />
    <vehicle id="route2_245" type="typeNS" route="route2" depart="245" />
    <vehicle id="route0_246" type="typeNS" route="route0" depart="246" />
    <vehicle id="route1_247" type="typeNS" route="route1" depart="247" />
    <vehicle id="route2_248" type="typeNS" route="route2" depart="248" />
    <vehicle id="route1_249" type="typeNS" route="route1" depart="249" />
    <vehicle id="route1_250" type="typeNS" route="route1" depart="250" />
    <vehicle id="route2_251" type="typeNS" route="route2" depart="251" />
    <vehicle id="route0_252" type="typeNS" route="route0" depart="252" />
    <vehicle id="route1_253" type="typeNS" route="route1" depart="253" />
    <vehicle id="route2_254" type="typeNS" route="route2" depart="254" />
    <vehicle id="route2_255" type="typeNS" route="route2" depart="255" />
    <vehicle id="route0_256" type="typeNS" route="route0" depart="256" />
    <vehicle id="route0_257" type="typeNS" route="route0" depart="257" />
    <vehicle id="route1_258" type="typeNS" route="route1" depart="258" />
    <vehicle id="route2_259" type="typeNS" route="route2" depart="259" />
    <vehicle id="route2_260" type="typeNS" route="route2" depart="260" />
    <vehicle id="route2_261" type="typeNS" route="route2" depart="261" />
    <vehicle id="route1_262" type="typeNS" route="route1" depart="262" />
    <vehicle id="route0_263" type="typeNS" route="route0" depart="263" />
    <vehicle id="route2_264" type="typeNS" route="route2" depart="264" />
    <vehicle id="route2_265" type="typeNS" route="route2" depart="265" />
    <vehicle id="route2_266" type="typeNS" route="route2" depart="266" />
    <vehicle id="route2_267" type="typeNS" route="route2" depart="267" />
    <vehicle id="route2_268" type="typeNS" route="route2" depart="268" />
    <vehicle id="route0_269" type="typeNS" route="route0" depart="269" />
    <vehicle id="route2_270" type="typeNS" route="route2" depart="270" />
    <vehicle id="route1_271" type="typeNS" route="route1" depart="271" />
    <vehicle id="route2_272" type="typeNS" route="route2" depart="272" />
    <vehicle id="route2_273" type="typeNS" route="route2" depart="273" />
    <vehicle id="route0_274" type="typeNS" route="route0" depart="274" />
    <vehicle id="route0_275" type="typeNS" route="route0" depart="275" />
    <vehicle id="route0_276" type="typeNS" route="route0" depart="276" />
    <vehicle id="route2_277" type="typeNS" route="route2" depart="277" />
    <vehicle id="route1_278" type="typeNS" route="route1" depart="278" />
    <vehicle id="route2_279" type="typeNS" route="route2" depart="279" />
    <vehicle id="route2_280" type="typeNS" route="route2" depart="280" />
    <vehicle id="route0_281" type="typeNS" route="route0" depart="281" />
    <vehicle id="route2_282" type="typeNS" route="route2" depart="282" />
    <vehicle id="route1_283" type="typeNS" route="route1" depart="283" />
    <vehicle id="route1_284" type="typeNS" route="route1" depart="284" />
    <vehicle id="route2_285" type="typeNS" route="route2" depart="285" />
    <vehicle id="route2_286" type="typeNS" route="route2" depart="286" />
    <vehicle id="route0_287" type="typeNS" route="route0" depart="287" />
    <vehicle id="route1_288" type="typeNS" route="route1" depart="288" />
    <vehicle id="route1_289" type="typeNS" route="route1" depart="289" />
    <vehicle id="route0_290" type="typeNS" route="route0" depart="290" />
    <vehicle id="route2_291" type="typeNS" route="route2" depart="291" />
    <vehicle id="route2_292" type="typeNS" route="route2" depart="292" />
    <vehicle id="route1_293" type="typeNS" route="route1" depart="293" />
    <vehicle id="route2_294" type="typeNS" route="route2" depart="294" />
    <vehicle id="route2_295" type="typeNS" route="route2" depart="295" />
    <vehicle id="route1_296" type="typeNS" route="route1" depart="296" />
    <vehicle id="route0_297" type="typeNS" route="route0" depart="297" />
    <vehicle id="route0_298" type="typeNS" route="route0" depart="298" />
    <vehicle id="route2_299" type="typeNS" route="route2" depart="299" />
    <vehicle id="route2_300" type="typeNS" route="route2" depart="300" />
    <vehicle id="route2_301" type="typeNS" route="route2" depart="301" />
    <vehicle id="route2_302" type="typeNS" route="route2" depart="302" />
    <vehicle id="route2_303" type="typeNS" route="route2" depart="303" />
    <vehicle id="route0_304" type="typeNS" route="route0" depart="304" />
    <vehicle id="route0_305" type="typeNS" route="route0" depart="305" />
    <vehicle id="route1_306" type="typeNS" route="route1" depart="306" />
    <vehicle id="route2_307" type="typeNS" route="route2" depart="307" />
    <vehicle id="route2_308" type="typeNS" route="route2" depart="308" />
    <vehicle id="route2_309" type="typeNS" route="route2" depart="309" />
    <vehicle id="route2_310" type="typeNS" route="route2" depart="310" />
    <vehicle id="route0_311" type="typeNS" route="route0" depart="311" />
    <vehicle id="route0_312" type="typeNS" route="route0" depart="312" />
    <vehicle id="route0_313" type="typeNS" route="route0" depart="313" />
    <vehicle id="route2_314" type="typeNS" route="route2" depart="314" />
    <vehicle id="route2_315" type="typeNS" route="route2" depart="315" />
    <vehicle id="route1_316" type="typeNS" route="route1" depart="316" />
    <vehicle id="route2_317" type="typeNS" route="route2" depart="317" />
    <vehicle id="route0_318" type="typeNS" route="route0" depart="318" />
    <vehicle id="route2_319" type="typeNS" route="route2" depart="319" />
    <vehicle id="route2_320" type="typeNS" route="route2" depart="320" />
    <vehicle id="route2_321" type="typeNS" route="route2" depart="321" />
    <vehicle id="route2_322" type="typeNS" route="route2" depart="322" />
    <vehicle id="route2_323" type="typeNS" route="route2" depart="323" />
    <vehicle id="route0_324" type="typeNS" route="route0" depart="324" />
    <vehicle id="route2_325" type="typeNS" route="route2" depart="325" />
    <vehicle id="route1_326" type="typeNS" route="route1" depart="326" />
    <vehicle id="route2_327" type="typeNS" route="route2" depart="327" />
    <vehicle id="route2_328" type="typeNS" route="route2" depart="328" />
    <vehicle id="route2_329" type="typeNS" route="route2" depart="329" />
    <vehicle id="route2_330" type="typeNS" route="route2" depart="330" />
    <vehicle id="route1_331" type="typeNS" route="route1" depart="331" />
    <vehicle id="route2_332" type="typeNS" route="route2" depart="332" />
    <vehicle id="route0_333" type="typeNS" route="route0" depart="333" />
    <vehicle id="route2_334" type="typeNS" route="route2" depart="334" />
    <vehicle id="route2_335" type="typeNS" route="route2" depart="335" />
    <vehicle id="route0_336" type="typeNS" route="route0" depart="336" />
    <vehicle id="route2_337" type="typeNS" route="route2" depart="337" />
    <vehicle id="route1_338" type="typeNS" route="route1" depart="338" />
    <vehicle id="route1_339" type="typeNS" route="route1" depart="339" />
    <vehicle id="route2_340" type="typeNS" route="route2" depart="340" />
    <vehicle id="route0_341" type="typeNS" route="route0" depart="341" />
    <vehicle id="route0_342" type="typeNS" route="route0" depart="342" />
    <vehicle id="route0_343" type="typeNS" route="route0" depart="343" />
    <vehicle id="route1_344" type="typeNS" route="route1" depart="344" />
    <vehicle id="route2_345" type="typeNS" route="route2" depart="345" />
    <vehicle id="route2_346" type="typeNS" route="route2" depart="346" />
    <vehicle id="route1_347" type="typeNS" route="route1" depart="347" />
    <vehicle id="route2_348" type="typeNS" route="route2" depart="348" />
    <vehicle id="route1_349" type="typeNS" route="route1" depart="349" />
    <vehicle id="route2_350" type="typeNS" route="route2" depart="350" />
    <vehicle id="route2_351" type="typeNS" route="route2" depart="351" />
    <vehicle id="route2_352" type="typeNS" route="route2" depart="352" />
    <vehicle id="route0_353" type="typeNS" route="route0" depart="353" />
    <vehicle id="route2_354" type="typeNS" route="route2" depart="354" />
    <vehicle id="route0_355" type="typeNS" route="route0" depart="355" />
    <vehicle id="route2_356" type="typeNS" route="route2" depart="356" />
    <vehicle id="route1_357" type="typeNS" route="route1" depart="357" />
    <vehicle id="route0_358" type="typeNS" route="route0" depart="358" />
    <vehicle id="route1_359" type="typeNS" route="route1" depart="359" />
    <vehicle id="route2_360" type="typeNS" route="route2" depart="360" />
    <vehicle id="route1_361" type="typeNS" route="route1" depart="361" />
    <vehicle id="route2_362" type="typeNS" route="route2" depart="362" />
    <vehicle id="route2_363" type="typeNS" route="route2" depart="363" />
    <vehicle id="route1_364" type="typeNS" route="route1" depart="364" />
    <vehicle id="route2_365" type="typeNS" route="route2" depart="365" />
    <vehicle id="route1_366" type="typeNS" route="route1" depart="366" />
    <vehicle id="route2_367" type="typeNS" route="route2" depart="367" />
    <vehicle id="route0_368" type="typeNS" route="route0" depart="368" />
    <vehicle id="route2_369" type="typeNS" route="route2" depart="369" />
    <vehicle id="route2_370" type="typeNS" route="route2" depart="370" />
    <vehicle id="route2_371" type="typeNS" route="route2" depart="371" />
    <vehicle id="route2_372" type="typeNS" route="route2" depart="372" />
    <vehicle id="route2_373" type="typeNS" route="route2" depart="373" />
    <vehicle id="route1_374" type="typeNS" route="route1" depart="374" />
    <vehicle id="route0_375" type="typeNS" route="route0" depart="375" />
    <vehicle id="route2_376" type="typeNS" route="route2" depart="376" />
    <vehicle id="route1_377" type="typeNS" route="route1" depart="377" />
    <vehicle id="route1_378" type="typeNS" route="route1" depart="378" />
    <vehicle id="route2_379" type="typeNS" route="route2" depart="379" />
    <vehicle id="route2_380" type="typeNS" route="route2" depart="380" />
    <vehicle id="route1_381" type="typeNS" route="route1" depart="381" />
    <vehicle id="route1_382" type="typeNS" route="route1" depart="382" />
    <vehicle id="route1_383" type="typeNS" route="route1" depart="383" />
    <vehicle id="route1_384" type="typeNS" route="route1" depart="384" />
    <vehicle id="route1_385" type="typeNS" route="route1" depart="385" />
    <vehicle id="route0_386" type="typeNS" route="route0" depart="386" />
    <vehicle id="route1_387" type="typeNS" route="route1" depart="387" />
    <vehicle id="route2_388" type="typeNS" route="route2" depart="388" />
    <vehicle id="route2_389" type="typeNS" route="route2" depart="389" />
    <vehicle id="route2_390" type="typeNS" route="route2" depart="390" />
    <vehicle id="route2_391" type="typeNS" route="route2" depart="391" />
    <vehicle id="route1_392" type="typeNS" route="route1" depart="392" />
    <vehicle id="route2_393" type="typeNS" route="route2" depart="393" />
    <vehicle id="route0_394" type="typeNS" route="route0" depart="394" />
    <vehicle id="route1_395" type="typeNS" route="route1" depart="395" />
    <vehicle id="route1_396" type="typeNS" route="route1" depart="396" />
    <vehicle id="route2_397" type="typeNS" route="route2" depart="397" />
    <vehicle id="route2_398" type="typeNS" route="route2" depart="398" />
    <vehicle id="route1_399" type="typeNS" route="route1" depart="399" />
    <vehicle id="route1_400" type="typeNS" route="route1" depart="400" />
    <vehicle id="route0_401" type="typeNS" route="route0" depart="401" />